Circuit: * C:\Users\lunaa\Documents\GitHub\E344\GitRepo\LTSpice\Ass6bLTspiceTemplate\E344_12345678_A6b.asc

Direct Newton iteration failed to find .op point.  (Use ".option noopiter" to skip.)
Starting Gmin stepping
Gmin = 10
Gmin = 1.07374
Gmin = 0.115292
Gmin = 0.0123794
Gmin = 0.00132923
Gmin = 0.000142725
Gmin = 1.5325e-005
Gmin = 1.6455e-006
Gmin = 1.76685e-007
vernier = 0.5
Gmin = 3.6596e-008
vernier = 0.666667
vernier = 0.888888
Gmin = 8.33961e-009
vernier = 1
Gmin = 1.00195e-009
Gmin = 1.07583e-010
Gmin = 1.15517e-011
Gmin = 1.24035e-012
Gmin = 1.33182e-013
Gmin = 0
Gmin stepping succeeded in finding the operating point.


Date: Sun Sep 25 20:54:28 2022
Total elapsed time: 0.371 seconds.

tnom = 27
temp = 27
method = modified trap
totiter = 6109
traniter = 5522
tranpoints = 2462
accept = 2344
rejected = 118
matrix size = 57
fillins = 46
solver = Normal
Matrix Compiler1: 7.56 KB object code size  2.2/1.0/[0.5]
Matrix Compiler2: 5.69 KB object code size  0.8/1.1/[0.7]

