Circuit: * C:\Users\lunaa\Documents\GitHub\E344\GitRepo\LTSpice\LTSpice - Template\E344_22898220_A5.asc

M2: all pins shorted together -- ignoring.
M3: all pins shorted together -- ignoring.
M4: all pins shorted together -- ignoring.
Limiting rise time of source v3 to 0.006
Limiting fall time of source v3 to 0.006
Direct Newton iteration failed to find .op point.  (Use ".option noopiter" to skip.)
Starting Gmin stepping
Gmin = 10
Gmin = 1.07374
Gmin = 0.115292
Gmin = 0.0123794
Gmin = 0.00132923
Gmin = 0.000142725
Gmin = 1.5325e-005
Gmin = 1.6455e-006
Gmin = 1.76685e-007
Gmin = 1.89714e-008
Gmin = 2.03704e-009
Gmin = 2.18725e-010
Gmin = 2.34854e-011
Gmin = 2.52173e-012
Gmin = 2.70769e-013
Gmin = 0
Gmin stepping succeeded in finding the operating point.


Date: Sun Sep 18 23:55:11 2022
Total elapsed time: 17.114 seconds.

tnom = 27
temp = 27
method = modified trap
totiter = 1268150
traniter = 1267707
tranpoints = 487433
accept = 410140
rejected = 77293
matrix size = 33
fillins = 22
solver = Normal
Matrix Compiler1: 2.79 KB object code size  0.7/0.3/[0.2]
Matrix Compiler2: off  [0.2]/0.3/0.4

