Circuit: * C:\Users\lunaa\Documents\GitHub\E344\GitRepo\LTSpice\Ass4\LTSpice4a\E344_12345678_A4a.asc

V3: Removing PWL point (0.06,0.5)
WARNING: Less than two connections to node 5V.  This node is used by RSENSE5V.
Direct Newton iteration failed to find .op point.  (Use ".option noopiter" to skip.)
Starting Gmin stepping
Gmin = 10
Gmin = 1.07374
Gmin = 0.115292
Gmin = 0.0123794
Gmin = 0.00132923
vernier = 0.5
vernier = 0.25
vernier = 0.125
vernier = 0.0625
Gmin = 0.00100083
vernier = 0.03125
vernier = 0.015625
vernier = 0.0078125
vernier = 0.00390625
vernier = 0.00195313
Gmin = 0.00100083
vernier = 0.000976563
vernier = 0.000488281
Gmin = 0
Gmin stepping failed

Starting source stepping with srcstepmethod=0
Source Step = 3.0303%
vernier = 0.25
Source Step = 1.70455%
Source Step = 3.59848%
Source Step = 5.49242%
Source Step = 7.38636%
Source Step = 9.2803%
vernier = 0.09375
Source Step = 11.9318%
Source Step = 14.7727%
Source Step = 17.6136%
Source Step = 20.4545%
Source Step = 23.2955%
vernier = 0.140625
Source Step = 27.1307%
Source Step = 31.392%
Source Step = 35.6534%
Source Step = 39.9148%
Source Step = 44.1761%
vernier = 0.210938
Source Step = 49.7159%
Source Step = 56.108%
Source Step = 62.5%
Source Step = 68.892%
Source Step = 75.2841%
vernier = 0.316406
Source Step = 83.2741%
Source Step = 83.2966%
Source Step = 83.3341%
Source Step = 83.3715%
Source Step = 83.409%
Source Step = 83.4464%
vernier = 0.00185394
Source Step = 83.4858%
Source Step = 83.5419%
Source Step = 83.5981%
Source Step = 83.6543%
Source Step = 83.7105%
Source Step = 83.7667%
vernier = 0.00278091
Source Step = 83.8509%
Source Step = 83.9352%
Source Step = 84.0195%
Source Step = 84.1037%
Source Step = 84.188%
vernier = 0.00417137
Source Step = 84.3102%
Source Step = 84.4366%
Source Step = 84.563%
Source Step = 84.6894%
Source Step = 84.8158%
vernier = 0.00625706
Source Step = 84.9928%
Source Step = 85.1824%
Source Step = 85.372%
Source Step = 85.5616%
Source Step = 85.7512%
vernier = 0.00938559
Source Step = 86.0072%
Source Step = 86.2916%
Source Step = 86.576%
Source Step = 86.8604%
Source Step = 87.1448%
vernier = 0.0140784
Source Step = 87.5146%
Source Step = 87.9412%
Source Step = 88.3678%
Source Step = 88.7944%
Source Step = 89.221%
vernier = 0.0211176
Source Step = 89.7543%
Source Step = 90.0863%
Source Step = 90.1263%
Source Step = 90.1663%
Source Step = 90.2063%
Source Step = 90.2463%
vernier = 0.00197977
Source Step = 90.2903%
Source Step = 90.3502%
Source Step = 90.4102%
Source Step = 90.4702%
Source Step = 90.5302%
vernier = 0.00296966
Source Step = 90.5932%
Source Step = 90.6832%
Source Step = 90.7732%
Source Step = 90.8632%
Source Step = 90.9532%
Source Step = 91.0432%
vernier = 0.00445449
Source Step = 91.1782%
Source Step = 91.3131%
Source Step = 91.4481%
Source Step = 91.5831%
Source Step = 91.7181%
vernier = 0.00668173
Source Step = 91.9138%
Source Step = 92.1163%
Source Step = 92.3188%
Source Step = 92.5212%
Source Step = 92.7237%
vernier = 0.0100226
Source Step = 93.0072%
Source Step = 93.3109%
Source Step = 93.6146%
Source Step = 93.9183%
Source Step = 94.2221%
vernier = 0.0150339
Source Step = 94.6321%
Source Step = 95.0876%
Source Step = 95.5432%
Source Step = 95.9988%
Source Step = 96.4544%
vernier = 0.0225508
Source Step = 97.0466%
Source Step = 97.73%
Source Step = 98.4133%
Source Step = 99.0967%
Source Step = 99.78%
Source Step = 99.8142%
Source Step = 99.8569%
Source Step = 99.8996%
Source Step = 99.9423%
Source Step = 99.985%
vernier = 0.00211414
Source stepping succeeded in finding the operating point.


Date: Thu Oct 13 15:40:32 2022
Total elapsed time: 1.189 seconds.

tnom = 27
temp = 27
method = modified trap
totiter = 19936
traniter = 13076
tranpoints = 3390
accept = 2777
rejected = 613
matrix size = 140
fillins = 253
solver = Normal
Thread vector: 5.3/6.4[1] 2.4/3.1[1] 5.1/2.2[3] 1.5/2.2[1]  2592/500
Matrix Compiler1: 22.70 KB object code size  5.2/2.6/[1.2]
Matrix Compiler2: 15.87 KB object code size  3.7/5.8/[1.5]

