Circuit: * C:\Users\lunaa\Documents\GitHub\E344\GitRepo\LTSpice\Draft2.asc

Direct Newton iteration failed to find .op point.  (Use ".option noopiter" to skip.)
Starting Gmin stepping
Gmin = 10
Gmin = 1.07374
Gmin = 0.115292
Gmin = 0.0123794
Gmin = 0.00132923
Gmin = 0.000142725
Gmin = 1.5325e-005
Gmin = 1.6455e-006
vernier = 0.5
vernier = 0.25
Gmin = 7.37083e-007
vernier = 0.333333
vernier = 0.444444
Gmin = 3.42136e-007
vernier = 0.592592
Gmin = 1.01256e-007
vernier = 0.790123
vernier = 1
Gmin = 1.531e-008
Gmin = 1.6439e-009
Gmin = 1.76512e-010
Gmin = 1.89528e-011
Gmin = 2.03505e-012
Gmin = 2.18511e-013
Gmin = 0
Gmin stepping succeeded in finding the operating point.


Date: Fri Sep 23 14:05:03 2022
Total elapsed time: 0.220 seconds.

tnom = 27
temp = 27
method = modified trap
totiter = 10262
traniter = 9514
tranpoints = 4033
accept = 3135
rejected = 898
matrix size = 27
fillins = 31
solver = Normal
Thread vector: 4.2/3.2[2] 2.2/2.3[1] 0.5/0.6[1] 0.1/0.5[1]  2592/500
Matrix Compiler1: 2.36 KB object code size  1.0/0.3/[0.2]
Matrix Compiler2: off  [0.2]/0.3/0.2

