Circuit: * C:\Users\lunaa\Documents\GitHub\E344\GitRepo\LTSpice\E344_Ass1_CurrSense.asc

Direct Newton iteration for .op point succeeded.

Date: Sun Jul 31 09:41:54 2022
Total elapsed time: 0.246 seconds.

tnom = 27
temp = 27
method = modified trap
totiter = 38972
traniter = 38954
tranpoints = 17684
accept = 11691
rejected = 5993
matrix size = 18
fillins = 10
solver = Normal
Matrix Compiler1: 1.62 KB object code size  0.4/0.2/[0.1]
Matrix Compiler2: off  [0.1]/0.7/0.2

