Circuit: * C:\Users\lunaa\Documents\GitHub\E344\GitRepo\LTSpice\Ass4\LTSpice4b\E344_12345678_A4b.asc

Warning: Multiple definitions of model "2scr375p" Type: BJT
Warning: Multiple definitions of model "bc857b" Type: BJT
Warning: Multiple definitions of model "bc847c" Type: BJT
Warning: Multiple definitions of model "bc847b" Type: BJT
Limiting rise time of source v3 to 0.003
Limiting fall time of source v3 to 0.003
WARNING: Less than two connections to node 5V.  This node is used by RSENSE5V.
Direct Newton iteration for .op point succeeded.

Date: Thu Oct 13 15:49:04 2022
Total elapsed time: 0.168 seconds.

tnom = 27
temp = 27
method = modified trap
totiter = 3987
traniter = 3979
tranpoints = 1884
accept = 1658
rejected = 226
matrix size = 19
fillins = 2
solver = Normal
Matrix Compiler1:      53 opcodes  0.4/[0.3]/0.4
Matrix Compiler2: 1.28 KB object code size  0.3/0.5/[0.3]

